AeroDyn airfoil file Created with QBlade v0.963 64bit on 05.04.2021 at 22:24:34 Compatible with AeroDyn v13.0.
Polar "T1_Re0.100_M0.00_N9.0 360 M" on Foil "T1_Re0.100_M0.00_N9.0" :: generated by QBlade
1              Number of airfoil tables in this file
0              Table ID parameter
50.00          Stall angle (deg)
0              No longer used, enter zero
0              No longer used, enter zero
0              No longer used, enter zero
-3.49          Angle of attack for zero Cn for linear Cn curve (deg)
8.06512        Cn slope for zero lift for linear Cn curve (1/rad)
-0.5296        Cn at stall value for positive angle of attack for linear Cn curve
-0.6981        Cn at stall value for negative angle of attack for linear Cn curve
0.00           Angle of attack for minimum CD (deg)
0.0160         Minimum CD value
   -180.00   -0.1138    0.0060
   -179.00   -0.0310    0.0065
   -178.00    0.0492    0.0081
   -177.00    0.1212    0.0107
   -176.00    0.1777    0.0144
   -175.00    0.2147    0.0191
   -174.00    0.2346    0.0249
   -173.00    0.2447    0.0317
   -172.00    0.2515    0.0394
   -171.00    0.2589    0.0482
   -170.00    0.2685    0.0580
   -169.00    0.2803    0.0687
   -168.00    0.2940    0.0804
   -167.00    0.3091    0.0931
   -166.00    0.3250    0.1067
   -165.00    0.3413    0.1212
   -164.00    0.3576    0.1366
   -163.00    0.3738    0.1528
   -162.00    0.3897    0.1699
   -161.00    0.4050    0.1879
   -160.00    0.4197    0.2066
   -159.00    0.4336    0.2261
   -158.00    0.4467    0.2464
   -157.00    0.4590    0.2674
   -156.00    0.4704    0.2891
   -155.00    0.4809    0.3115
   -154.00    0.4904    0.3345
   -153.00    0.4990    0.3582
   -152.00    0.5067    0.3824
   -151.00    0.5133    0.4072
   -150.00    0.5191    0.4325
   -149.00    0.5238    0.4583
   -148.00    0.5277    0.4846
   -147.00    0.5306    0.5113
   -146.00    0.5326    0.5384
   -145.00    0.5337    0.5659
   -144.00    0.5340    0.5937
   -143.00    0.5334    0.6219
   -142.00    0.5320    0.6502
   -141.00    0.5297    0.6788
   -140.00    0.5267    0.7076
   -139.00    0.5230    0.7366
   -138.00    0.5185    0.7657
   -137.00    0.5134    0.7948
   -136.00    0.5075    0.8240
   -135.00    0.5011    0.8533
   -134.00    0.4940    0.8825
   -133.00    0.4863    0.9117
   -132.00    0.4781    0.9407
   -131.00    0.4694    0.9697
   -130.00    0.4602    0.9985
   -129.00    0.4505    1.0271
   -128.00    0.4404    1.0555
   -127.00    0.4299    1.0836
   -126.00    0.4190    1.1114
   -125.00    0.4078    1.1389
   -124.00    0.3962    1.1660
   -123.00    0.3844    1.1928
   -122.00    0.3723    1.2191
   -121.00    0.3599    1.2449
   -120.00    0.3473    1.2703
   -119.00    0.3345    1.2951
   -118.00    0.3216    1.3194
   -117.00    0.3084    1.3432
   -116.00    0.2952    1.3663
   -115.00    0.2818    1.3888
   -114.00    0.2683    1.4106
   -113.00    0.2547    1.4318
   -112.00    0.2411    1.4522
   -111.00    0.2264    1.4720
   -110.00    0.2127    1.4909
   -109.00    0.1990    1.5091
   -108.00    0.1852    1.5265
   -107.00    0.1714    1.5430
   -106.00    0.1577    1.5587
   -105.00    0.1439    1.5736
   -104.00    0.1302    1.5876
   -103.00    0.1165    1.6007
   -102.00    0.1028    1.6129
   -101.00    0.0892    1.6241
   -100.00    0.0756    1.6345
    -99.00    0.0621    1.6438
    -98.00    0.0486    1.6523
    -97.00    0.0351    1.6597
    -96.00    0.0218    1.6662
    -95.00    0.0085    1.6717
    -94.00   -0.0048    1.6762
    -93.00   -0.0180    1.6797
    -92.00   -0.0311    1.6822
    -91.00   -0.0441    1.6837
    -90.00   -0.0571    1.6842
    -89.00   -0.0700    1.6837
    -88.00   -0.0829    1.6822
    -87.00   -0.0956    1.6796
    -86.00   -0.1083    1.6761
    -85.00   -0.1209    1.6716
    -84.00   -0.1335    1.6661
    -83.00   -0.1460    1.6596
    -82.00   -0.1584    1.6521
    -81.00   -0.1707    1.6437
    -80.00   -0.1829    1.6343
    -79.00   -0.1950    1.6240
    -78.00   -0.2071    1.6127
    -77.00   -0.2190    1.6005
    -76.00   -0.2309    1.5874
    -75.00   -0.2426    1.5734
    -74.00   -0.2543    1.5585
    -73.00   -0.2658    1.5428
    -72.00   -0.2772    1.5262
    -71.00   -0.2884    1.5088
    -70.00   -0.2995    1.4906
    -69.00   -0.3105    1.4716
    -68.00   -0.3213    1.4519
    -67.00   -0.3320    1.4314
    -66.00   -0.3424    1.4102
    -65.00   -0.3527    1.3883
    -64.00   -0.3628    1.3658
    -63.00   -0.3726    1.3427
    -62.00   -0.3822    1.3189
    -61.00   -0.3916    1.2946
    -60.00   -0.4007    1.2697
    -59.00   -0.4096    1.2443
    -58.00   -0.4181    1.2184
    -57.00   -0.4264    1.1920
    -56.00   -0.4343    1.1652
    -55.00   -0.4419    1.1380
    -54.00   -0.4492    1.1105
    -53.00   -0.4561    1.0826
    -52.00   -0.4626    1.0544
    -51.00   -0.4687    1.0260
    -50.00   -0.4745    0.9973
    -49.00   -0.4797    0.9684
    -48.00   -0.4846    0.9394
    -47.00   -0.4890    0.9102
    -46.00   -0.4929    0.8809
    -45.00   -0.4963    0.8516
    -44.00   -0.4993    0.8222
    -43.00   -0.5017    0.7929
    -42.00   -0.5037    0.7635
    -41.00   -0.5051    0.7343
    -40.00   -0.5060    0.7051
    -39.00   -0.5065    0.6761
    -38.00   -0.5064    0.6473
    -37.00   -0.5058    0.6187
    -36.00   -0.5047    0.5902
    -35.00   -0.5032    0.5621
    -34.00   -0.5013    0.5342
    -33.00   -0.4990    0.5066
    -32.00   -0.4964    0.4794
    -31.00   -0.4936    0.4525
    -30.00   -0.4907    0.4260
    -29.00   -0.4879    0.3999
    -28.00   -0.4852    0.3742
    -27.00   -0.4831    0.3488
    -26.00   -0.4819    0.3238
    -25.00   -0.4819    0.2992
    -24.00   -0.4838    0.2749
    -23.00   -0.4884    0.2508
    -22.00   -0.4967    0.2269
    -21.00   -0.5100    0.2030
    -20.00   -0.5300    0.1791
    -19.00   -0.5585    0.1550
    -18.00   -0.5971    0.1306
    -17.00   -0.6461    0.1063
    -16.00   -0.7026    0.0824
    -15.00   -0.4990    0.1839
    -14.00   -0.4657    0.1706
    -13.00   -0.4360    0.1585
    -12.00   -0.4097    0.1473
    -11.00   -0.4001    0.1425
    -10.00   -0.3808    0.1327
     -9.00   -0.3403    0.1088
     -8.00   -0.3182    0.0974
     -7.00   -0.3261    0.0921
     -6.00   -0.3535    0.0823
     -4.00   -0.0823    0.0435
     -3.00    0.0802    0.0236
     -2.00    0.1955    0.0187
      0.00    0.4107    0.0160
      1.00    0.5112    0.0174
      2.00    0.6152    0.0191
      3.00    0.7138    0.0206
      4.00    0.8104    0.0225
      5.00    0.9133    0.0234
      6.00    1.0240    0.0195
      7.00    1.1259    0.0196
      8.00    1.1557    0.0236
      9.00    1.1445    0.0340
     10.00    1.2324    0.0456
     11.00    1.2326    0.0612
     12.00    1.1650    0.0790
     13.00    1.0762    0.1040
     16.00    0.9792    0.2164
     17.00    0.9683    0.2307
     18.00    0.9850    0.2505
     19.00    1.0102    0.2824
     20.00    0.9918    0.2966
     21.00    0.9595    0.2074
     22.00    0.9618    0.2305
     23.00    0.9680    0.2542
     24.00    0.9773    0.2784
     25.00    0.9890    0.3033
     26.00    1.0025    0.3286
     27.00    1.0174    0.3546
     28.00    1.0334    0.3810
     29.00    1.0500    0.4079
     30.00    1.0670    0.4354
     31.00    1.0842    0.4633
     32.00    1.1014    0.4917
     33.00    1.1184    0.5205
     34.00    1.1350    0.5497
     35.00    1.1512    0.5792
     36.00    1.1669    0.6091
     37.00    1.1818    0.6394
     38.00    1.1960    0.6699
     39.00    1.2093    0.7006
     40.00    1.2218    0.7316
     41.00    1.2332    0.7627
     42.00    1.2437    0.7940
     43.00    1.2530    0.8254
     44.00    1.2612    0.8569
     45.00    1.2682    0.8884
     46.00    1.2741    0.9199
     47.00    1.2786    0.9514
     48.00    1.2819    0.9828
     49.00    1.2839    1.0141
     50.00    1.2845    1.0452
     51.00    1.2838    1.0762
     52.00    1.2817    1.1070
     53.00    1.2782    1.1374
     54.00    1.2732    1.1676
     55.00    1.2669    1.1975
     56.00    1.2591    1.2270
     57.00    1.2498    1.2560
     58.00    1.2391    1.2847
     59.00    1.2270    1.3128
     60.00    1.2134    1.3405
     61.00    1.1983    1.3676
     62.00    1.1818    1.3941
     63.00    1.1639    1.4200
     64.00    1.1445    1.4453
     65.00    1.1237    1.4699
     66.00    1.1016    1.4938
     67.00    1.0780    1.5170
     68.00    1.0531    1.5394
     69.00    1.0268    1.5610
     70.00    0.9993    1.5818
     71.00    0.9704    1.6018
     72.00    0.9403    1.6209
     73.00    0.9090    1.6391
     74.00    0.8764    1.6563
     75.00    0.8427    1.6727
     76.00    0.8079    1.6881
     77.00    0.7721    1.7025
     78.00    0.7351    1.7159
     79.00    0.6972    1.7283
     80.00    0.6584    1.7397
     81.00    0.6186    1.7501
     82.00    0.5780    1.7594
     83.00    0.5366    1.7676
     84.00    0.4944    1.7748
     85.00    0.4516    1.7809
     86.00    0.4081    1.7858
     87.00    0.3641    1.7897
     88.00    0.3195    1.7925
     89.00    0.2745    1.7942
     90.00    0.2291    1.7948
     91.00    0.1833    1.7942
     92.00    0.1373    1.7926
     93.00    0.0910    1.7899
     94.00    0.0447    1.7860
     95.00   -0.0018    1.7811
     96.00   -0.0482    1.7750
     97.00   -0.0946    1.7679
     98.00   -0.1409    1.7597
     99.00   -0.1870    1.7505
    100.00   -0.2328    1.7402
    101.00   -0.2784    1.7288
    102.00   -0.3235    1.7165
    103.00   -0.3682    1.7031
    104.00   -0.4123    1.6887
    105.00   -0.4559    1.6734
    106.00   -0.4988    1.6571
    107.00   -0.5410    1.6399
    108.00   -0.5845    1.6217
    109.00   -0.6251    1.6027
    110.00   -0.6648    1.5828
    111.00   -0.7035    1.5621
    112.00   -0.7412    1.5405
    113.00   -0.7778    1.5182
    114.00   -0.8133    1.4951
    115.00   -0.8476    1.4713
    116.00   -0.8807    1.4467
    117.00   -0.9126    1.4215
    118.00   -0.9431    1.3957
    119.00   -0.9722    1.3693
    120.00   -0.9999    1.3423
    121.00   -1.0262    1.3147
    122.00   -1.0510    1.2866
    123.00   -1.0742    1.2581
    124.00   -1.0959    1.2292
    125.00   -1.1161    1.1998
    126.00   -1.1346    1.1701
    127.00   -1.1515    1.1400
    128.00   -1.1667    1.1097
    129.00   -1.1803    1.0791
    130.00   -1.1922    1.0483
    131.00   -1.2023    1.0173
    132.00   -1.2108    0.9862
    133.00   -1.2176    0.9550
    134.00   -1.2226    0.9237
    135.00   -1.2260    0.8925
    136.00   -1.2276    0.8612
    137.00   -1.2276    0.8300
    138.00   -1.2258    0.7989
    139.00   -1.2224    0.7679
    140.00   -1.2173    0.7371
    141.00   -1.2106    0.7065
    142.00   -1.2023    0.6761
    143.00   -1.1924    0.6460
    144.00   -1.1810    0.6162
    145.00   -1.1680    0.5868
    146.00   -1.1536    0.5578
    147.00   -1.1378    0.5292
    148.00   -1.1206    0.5011
    149.00   -1.1020    0.4735
    150.00   -1.0822    0.4464
    151.00   -1.0612    0.4198
    152.00   -1.0390    0.3939
    153.00   -1.0158    0.3685
    154.00   -0.9915    0.3438
    155.00   -0.9664    0.3198
    156.00   -0.9406    0.2966
    157.00   -0.9140    0.2740
    158.00   -0.8870    0.2522
    159.00   -0.8596    0.2312
    160.00   -0.8322    0.2110
    161.00   -0.8049    0.1917
    162.00   -0.7781    0.1732
    163.00   -0.7522    0.1556
    164.00   -0.7279    0.1389
    165.00   -0.7059    0.1231
    166.00   -0.6873    0.1083
    167.00   -0.6731    0.0944
    168.00   -0.6645    0.0814
    169.00   -0.6624    0.0695
    170.00   -0.6655    0.0586
    171.00   -0.6692    0.0486
    172.00   -0.6642    0.0397
    173.00   -0.6401    0.0319
    174.00   -0.5921    0.0250
    175.00   -0.5244    0.0192
    176.00   -0.4459    0.0145
    177.00   -0.3634    0.0108
    178.00   -0.2802    0.0081
    179.00   -0.1970    0.0065
    180.00   -0.1138    0.0060
    180.00   -0.1138    0.0060
