AeroDyn airfoil file Created with QBlade v0.963 64bit on 05.04.2021 at 22:24:34 Compatible with AeroDyn v13.0.
Polar "E780-R81712-20-20 360 M" on Foil "E780-R81712-20-20" :: generated by QBlade
1              Number of airfoil tables in this file
0              Table ID parameter
50.00          Stall angle (deg)
0              No longer used, enter zero
0              No longer used, enter zero
0              No longer used, enter zero
-3.09          Angle of attack for zero Cn for linear Cn curve (deg)
8.11982        Cn slope for zero lift for linear Cn curve (1/rad)
-0.6502        Cn at stall value for positive angle of attack for linear Cn curve
-0.5797        Cn at stall value for negative angle of attack for linear Cn curve
-0.50          Angle of attack for minimum CD (deg)
0.0184         Minimum CD value
   -180.00   -0.0930    0.0060
   -179.00    0.0221    0.0065
   -178.00    0.1357    0.0081
   -177.00    0.2401    0.0107
   -176.00    0.3202    0.0144
   -175.00    0.3623    0.0191
   -174.00    0.3683    0.0249
   -173.00    0.3546    0.0317
   -172.00    0.3377    0.0394
   -171.00    0.3258    0.0482
   -170.00    0.3210    0.0580
   -169.00    0.3226    0.0687
   -168.00    0.3290    0.0804
   -167.00    0.3388    0.0931
   -166.00    0.3509    0.1067
   -165.00    0.3643    0.1212
   -164.00    0.3784    0.1366
   -163.00    0.3929    0.1528
   -162.00    0.4073    0.1699
   -161.00    0.4214    0.1879
   -160.00    0.4350    0.2066
   -159.00    0.4480    0.2261
   -158.00    0.4603    0.2464
   -157.00    0.4719    0.2674
   -156.00    0.4826    0.2891
   -155.00    0.4924    0.3115
   -154.00    0.5013    0.3345
   -153.00    0.5093    0.3582
   -152.00    0.5164    0.3824
   -151.00    0.5225    0.4072
   -150.00    0.5277    0.4325
   -149.00    0.5320    0.4583
   -148.00    0.5354    0.4846
   -147.00    0.5378    0.5113
   -146.00    0.5394    0.5385
   -145.00    0.5401    0.5659
   -144.00    0.5399    0.5937
   -143.00    0.5389    0.6219
   -142.00    0.5371    0.6502
   -141.00    0.5345    0.6788
   -140.00    0.5312    0.7076
   -139.00    0.5271    0.7366
   -138.00    0.5223    0.7657
   -137.00    0.5168    0.7948
   -136.00    0.5107    0.8240
   -135.00    0.5040    0.8533
   -134.00    0.4966    0.8825
   -133.00    0.4887    0.9117
   -132.00    0.4803    0.9407
   -131.00    0.4713    0.9697
   -130.00    0.4619    0.9985
   -129.00    0.4521    1.0271
   -128.00    0.4418    1.0555
   -127.00    0.4311    1.0836
   -126.00    0.4201    1.1114
   -125.00    0.4087    1.1389
   -124.00    0.3970    1.1660
   -123.00    0.3850    1.1928
   -122.00    0.3728    1.2191
   -121.00    0.3603    1.2449
   -120.00    0.3476    1.2703
   -119.00    0.3347    1.2952
   -118.00    0.3217    1.3195
   -117.00    0.3085    1.3432
   -116.00    0.2952    1.3663
   -115.00    0.2817    1.3888
   -114.00    0.2682    1.4107
   -113.00    0.2546    1.4318
   -112.00    0.2409    1.4523
   -111.00    0.2272    1.4720
   -110.00    0.2126    1.4909
   -109.00    0.1988    1.5091
   -108.00    0.1850    1.5265
   -107.00    0.1712    1.5431
   -106.00    0.1574    1.5588
   -105.00    0.1436    1.5736
   -104.00    0.1299    1.5876
   -103.00    0.1161    1.6007
   -102.00    0.1024    1.6129
   -101.00    0.0888    1.6242
   -100.00    0.0752    1.6345
    -99.00    0.0616    1.6439
    -98.00    0.0481    1.6523
    -97.00    0.0347    1.6598
    -96.00    0.0213    1.6662
    -95.00    0.0080    1.6717
    -94.00   -0.0053    1.6762
    -93.00   -0.0185    1.6797
    -92.00   -0.0316    1.6823
    -91.00   -0.0447    1.6838
    -90.00   -0.0577    1.6843
    -89.00   -0.0706    1.6837
    -88.00   -0.0835    1.6822
    -87.00   -0.0962    1.6797
    -86.00   -0.1090    1.6762
    -85.00   -0.1216    1.6717
    -84.00   -0.1342    1.6662
    -83.00   -0.1466    1.6597
    -82.00   -0.1591    1.6522
    -81.00   -0.1714    1.6438
    -80.00   -0.1836    1.6344
    -79.00   -0.1958    1.6241
    -78.00   -0.2079    1.6128
    -77.00   -0.2198    1.6006
    -76.00   -0.2317    1.5875
    -75.00   -0.2435    1.5735
    -74.00   -0.2551    1.5586
    -73.00   -0.2667    1.5429
    -72.00   -0.2781    1.5263
    -71.00   -0.2894    1.5089
    -70.00   -0.3006    1.4907
    -69.00   -0.3116    1.4718
    -68.00   -0.3224    1.4520
    -67.00   -0.3331    1.4316
    -66.00   -0.3436    1.4104
    -65.00   -0.3539    1.3886
    -64.00   -0.3641    1.3661
    -63.00   -0.3740    1.3429
    -62.00   -0.3837    1.3192
    -61.00   -0.3931    1.2948
    -60.00   -0.4023    1.2700
    -59.00   -0.4112    1.2446
    -58.00   -0.4199    1.2187
    -57.00   -0.4283    1.1923
    -56.00   -0.4363    1.1656
    -55.00   -0.4440    1.1384
    -54.00   -0.4514    1.1109
    -53.00   -0.4584    1.0830
    -52.00   -0.4651    1.0549
    -51.00   -0.4713    1.0265
    -50.00   -0.4772    0.9978
    -49.00   -0.4826    0.9690
    -48.00   -0.4876    0.9400
    -47.00   -0.4921    0.9109
    -46.00   -0.4962    0.8816
    -45.00   -0.4998    0.8524
    -44.00   -0.5029    0.8230
    -43.00   -0.5055    0.7938
    -42.00   -0.5076    0.7645
    -41.00   -0.5092    0.7353
    -40.00   -0.5103    0.7063
    -39.00   -0.5108    0.6774
    -38.00   -0.5108    0.6486
    -37.00   -0.5104    0.6201
    -36.00   -0.5094    0.5918
    -35.00   -0.5079    0.5638
    -34.00   -0.5060    0.5361
    -33.00   -0.5037    0.5088
    -32.00   -0.5010    0.4818
    -31.00   -0.4981    0.4552
    -30.00   -0.4949    0.4290
    -29.00   -0.4918    0.4032
    -28.00   -0.4887    0.3779
    -27.00   -0.4860    0.3531
    -26.00   -0.4840    0.3287
    -25.00   -0.4830    0.3048
    -24.00   -0.4838    0.2813
    -23.00   -0.4870    0.2583
    -22.00   -0.4938    0.2356
    -21.00   -0.5059    0.2132
    -20.00   -0.5252    0.1911
    -19.00   -0.5549    0.1690
    -18.50   -0.6066    0.2362
    -18.00   -0.5878    0.2246
    -17.50   -0.5715    0.2163
    -17.00   -0.5558    0.2090
    -16.50   -0.5403    0.2021
    -16.00   -0.5248    0.1956
    -15.50   -0.5094    0.1894
    -15.00   -0.4944    0.1837
    -14.50   -0.4802    0.1790
    -14.00   -0.4702    0.1770
    -13.50   -0.4669    0.1768
    -13.00   -0.4601    0.1740
    -12.50   -0.4501    0.1693
    -12.00   -0.4391    0.1575
    -11.50   -0.4015    0.1414
    -11.00   -0.3846    0.1346
    -10.50   -0.3714    0.1285
    -10.00   -0.3607    0.1230
     -9.50   -0.3563    0.1197
     -9.00   -0.3599    0.1194
     -8.50   -0.3577    0.1160
     -8.00   -0.3329    0.0995
     -7.50   -0.3140    0.0929
     -7.00   -0.3109    0.0881
     -6.50   -0.3238    0.0849
     -6.00   -0.3630    0.0848
     -5.50   -0.3469    0.0849
     -5.00   -0.3169    0.0694
     -4.50   -0.2394    0.0602
     -4.00   -0.1765    0.0526
     -3.50   -0.0505    0.0371
     -3.00    0.0115    0.0288
     -2.50    0.0956    0.0241
     -2.00    0.1540    0.0222
     -1.50    0.2241    0.0201
     -0.50    0.3430    0.0184
      0.00    0.4068    0.0190
      0.50    0.4449    0.0202
      1.00    0.5029    0.0206
      1.50    0.5495    0.0220
      2.00    0.5932    0.0233
      2.50    0.6505    0.0239
      3.00    0.6909    0.0257
      3.50    0.7371    0.0268
      4.00    0.7973    0.0270
      4.50    0.8288    0.0293
      5.00    0.8880    0.0290
      5.50    0.9334    0.0300
      6.00    0.9910    0.0290
      6.50    1.0674    0.0224
      7.00    1.1079    0.0258
      7.50    1.1584    0.0226
      8.00    1.1737    0.0230
      8.50    1.1336    0.0307
      9.00    1.1286    0.0357
      9.50    1.1728    0.0413
     10.00    1.2258    0.0488
     10.50    1.2382    0.0568
     11.00    1.2242    0.0649
     11.50    1.1948    0.0738
     12.00    1.1651    0.0840
     12.50    1.1401    0.0913
     13.00    1.0985    0.1026
     13.50    1.0441    0.1194
     14.00    0.9748    0.1509
     14.50    0.9651    0.1664
     15.00    0.9707    0.1992
     15.50    0.9510    0.2027
     16.00    0.9521    0.2118
     16.50    0.9606    0.2214
     17.00    0.9762    0.2315
     17.50    1.0023    0.2542
     18.00    1.0027    0.2629
     18.50    0.9863    0.2662
     19.00    0.9835    0.2748
     19.50    0.9859    0.2850
     20.00    0.9888    0.2948
     21.00    0.9792    0.2119
     22.00    0.9830    0.2341
     23.00    0.9897    0.2570
     24.00    0.9990    0.2807
     25.00    1.0102    0.3050
     26.00    1.0229    0.3299
     27.00    1.0369    0.3554
     28.00    1.0519    0.3816
     29.00    1.0674    0.4082
     30.00    1.0834    0.4355
     31.00    1.0997    0.4632
     32.00    1.1159    0.4914
     33.00    1.1321    0.5201
     34.00    1.1479    0.5492
     35.00    1.1634    0.5787
     36.00    1.1784    0.6086
     37.00    1.1929    0.6387
     38.00    1.2066    0.6692
     39.00    1.2195    0.6999
     40.00    1.2316    0.7309
     41.00    1.2428    0.7620
     42.00    1.2531    0.7933
     43.00    1.2622    0.8247
     44.00    1.2703    0.8562
     45.00    1.2773    0.8877
     46.00    1.2831    0.9192
     47.00    1.2876    0.9507
     48.00    1.2909    0.9821
     49.00    1.2929    1.0134
     50.00    1.2936    1.0446
     51.00    1.2929    1.0755
     52.00    1.2909    1.1063
     53.00    1.2874    1.1368
     54.00    1.2825    1.1670
     55.00    1.2763    1.1969
     56.00    1.2685    1.2264
     57.00    1.2593    1.2555
     58.00    1.2487    1.2841
     59.00    1.2366    1.3123
     60.00    1.2230    1.3400
     61.00    1.2080    1.3671
     62.00    1.1915    1.3936
     63.00    1.1735    1.4196
     64.00    1.1542    1.4448
     65.00    1.1333    1.4695
     66.00    1.1111    1.4934
     67.00    1.0874    1.5166
     68.00    1.0624    1.5390
     69.00    1.0360    1.5606
     70.00    1.0083    1.5814
     71.00    0.9792    1.6014
     72.00    0.9489    1.6205
     73.00    0.9173    1.6387
     74.00    0.8846    1.6560
     75.00    0.8506    1.6724
     76.00    0.8155    1.6878
     77.00    0.7793    1.7022
     78.00    0.7420    1.7156
     79.00    0.7037    1.7281
     80.00    0.6645    1.7395
     81.00    0.6243    1.7498
     82.00    0.5833    1.7591
     83.00    0.5415    1.7674
     84.00    0.4989    1.7745
     85.00    0.4556    1.7806
     86.00    0.4116    1.7856
     87.00    0.3671    1.7895
     88.00    0.3221    1.7923
     89.00    0.2766    1.7940
     90.00    0.2306    1.7946
     91.00    0.1844    1.7941
     92.00    0.1379    1.7924
     93.00    0.0911    1.7897
     94.00    0.0443    1.7858
     95.00   -0.0027    1.7809
     96.00   -0.0496    1.7749
     97.00   -0.0965    1.7678
     98.00   -0.1432    1.7596
     99.00   -0.1897    1.7504
    100.00   -0.2360    1.7401
    101.00   -0.2819    1.7287
    102.00   -0.3275    1.7164
    103.00   -0.3725    1.7030
    104.00   -0.4170    1.6886
    105.00   -0.4609    1.6733
    106.00   -0.5041    1.6570
    107.00   -0.5466    1.6398
    108.00   -0.5918    1.6216
    109.00   -0.6325    1.6026
    110.00   -0.6724    1.5827
    111.00   -0.7112    1.5620
    112.00   -0.7490    1.5405
    113.00   -0.7857    1.5181
    114.00   -0.8212    1.4950
    115.00   -0.8555    1.4712
    116.00   -0.8886    1.4467
    117.00   -0.9203    1.4215
    118.00   -0.9507    1.3957
    119.00   -0.9797    1.3692
    120.00   -1.0073    1.3422
    121.00   -1.0333    1.3147
    122.00   -1.0578    1.2866
    123.00   -1.0808    1.2581
    124.00   -1.1022    1.2291
    125.00   -1.1220    1.1998
    126.00   -1.1401    1.1700
    127.00   -1.1565    1.1400
    128.00   -1.1713    1.1097
    129.00   -1.1844    1.0791
    130.00   -1.1957    1.0483
    131.00   -1.2054    1.0173
    132.00   -1.2133    0.9862
    133.00   -1.2194    0.9550
    134.00   -1.2239    0.9237
    135.00   -1.2266    0.8924
    136.00   -1.2275    0.8612
    137.00   -1.2268    0.8300
    138.00   -1.2243    0.7988
    139.00   -1.2202    0.7679
    140.00   -1.2144    0.7370
    141.00   -1.2069    0.7064
    142.00   -1.1978    0.6761
    143.00   -1.1872    0.6460
    144.00   -1.1750    0.6162
    145.00   -1.1612    0.5868
    146.00   -1.1461    0.5578
    147.00   -1.1294    0.5292
    148.00   -1.1114    0.5011
    149.00   -1.0921    0.4735
    150.00   -1.0715    0.4464
    151.00   -1.0497    0.4198
    152.00   -1.0268    0.3939
    153.00   -1.0028    0.3685
    154.00   -0.9778    0.3438
    155.00   -0.9520    0.3198
    156.00   -0.9254    0.2965
    157.00   -0.8981    0.2740
    158.00   -0.8704    0.2522
    159.00   -0.8423    0.2312
    160.00   -0.8142    0.2110
    161.00   -0.7862    0.1917
    162.00   -0.7588    0.1732
    163.00   -0.7323    0.1556
    164.00   -0.7075    0.1389
    165.00   -0.6853    0.1231
    166.00   -0.6668    0.1083
    167.00   -0.6539    0.0944
    168.00   -0.6486    0.0814
    169.00   -0.6539    0.0695
    170.00   -0.6718    0.0586
    171.00   -0.7015    0.0486
    172.00   -0.7338    0.0397
    173.00   -0.7484    0.0319
    174.00   -0.7229    0.0250
    175.00   -0.6522    0.0192
    176.00   -0.5514    0.0145
    177.00   -0.4385    0.0108
    178.00   -0.3234    0.0081
    179.00   -0.2082    0.0065
    180.00   -0.0930    0.0060
    180.00   -0.0930    0.0060
